19

Fe   35.350000    12.246000     0.000000
Fe   36.764000    12.246000     0.000000
Fe   36.410500    11.633700     0.000000
Fe   36.057000    11.021400     0.000000
Fe   36.410500    12.858300     0.000000
Fe   36.057000    12.246000     0.000000
Fe   35.703500    11.633700     0.000000
Fe   35.350000    11.021400     0.000000
Fe   36.057000    13.470600     0.000000
Fe   35.703500    12.858300     0.000000
Fe   34.996500    11.633700     0.000000
Fe   34.643000    11.021400     0.000000
Fe   35.350000    13.470600     0.000000
Fe   34.996500    12.858300     0.000000
Fe   34.643000    12.246000     0.000000
Fe   34.289500    11.633700     0.000000
Fe   34.643000    13.470600     0.000000
Fe   34.289500    12.858300     0.000000
Fe   33.936000    12.246000     0.000000
