800

Fe    0.000000     0.000000     0.000000
Fe    0.353500     0.612300     0.000000
Fe    0.707000     1.224600     0.000000
Fe    1.060500     1.836900     0.000000
Fe    1.414000     2.449200     0.000000
Fe    1.767500     3.061500     0.000000
Fe    2.121000     3.673800     0.000000
Fe    2.474500     4.286100     0.000000
Fe    2.828000     4.898400     0.000000
Fe    3.181500     5.510700     0.000000
Fe    3.535000     6.123000     0.000000
Fe    3.888500     6.735300     0.000000
Fe    4.242000     7.347600     0.000000
Fe    4.595500     7.959900     0.000000
Fe    4.949000     8.572200     0.000000
Fe    5.302500     9.184500     0.000000
Fe    5.656000     9.796800     0.000000
Fe    6.009500    10.409100     0.000000
Fe    6.363000    11.021400     0.000000
Fe    6.716500    11.633700     0.000000
Fe    7.070000    12.246000     0.000000
Fe    7.423500    12.858300     0.000000
Fe    7.777000    13.470600     0.000000
Fe    8.130500    14.082900     0.000000
Fe    8.484000    14.695200     0.000000
Fe    8.837500    15.307500     0.000000
Fe    9.191000    15.919800     0.000000
Fe    9.544500    16.532100     0.000000
Fe    9.898000    17.144400     0.000000
Fe   10.251500    17.756700     0.000000
Fe   10.605000    18.369000     0.000000
Fe   10.958500    18.981300     0.000000
Fe   11.312000    19.593600     0.000000
Fe   11.665500    20.205900     0.000000
Fe   12.019000    20.818200     0.000000
Fe   12.372500    21.430500     0.000000
Fe   12.726000    22.042800     0.000000
Fe   13.079500    22.655100     0.000000
Fe   13.433000    23.267400     0.000000
Fe   13.786500    23.879700     0.000000
Fe    0.707000     0.000000     0.000000
Fe    1.060500     0.612300     0.000000
Fe    1.414000     1.224600     0.000000
Fe    1.767500     1.836900     0.000000
Fe    2.121000     2.449200     0.000000
Fe    2.474500     3.061500     0.000000
Fe    2.828000     3.673800     0.000000
Fe    3.181500     4.286100     0.000000
Fe    3.535000     4.898400     0.000000
Fe    3.888500     5.510700     0.000000
Fe    4.242000     6.123000     0.000000
Fe    4.595500     6.735300     0.000000
Fe    4.949000     7.347600     0.000000
Fe    5.302500     7.959900     0.000000
Fe    5.656000     8.572200     0.000000
Fe    6.009500     9.184500     0.000000
Fe    6.363000     9.796800     0.000000
Fe    6.716500    10.409100     0.000000
Fe    7.070000    11.021400     0.000000
Fe    7.423500    11.633700     0.000000
Fe    7.777000    12.246000     0.000000
Fe    8.130500    12.858300     0.000000
Fe    8.484000    13.470600     0.000000
Fe    8.837500    14.082900     0.000000
Fe    9.191000    14.695200     0.000000
Fe    9.544500    15.307500     0.000000
Fe    9.898000    15.919800     0.000000
Fe   10.251500    16.532100     0.000000
Fe   10.605000    17.144400     0.000000
Fe   10.958500    17.756700     0.000000
Fe   11.312000    18.369000     0.000000
Fe   11.665500    18.981300     0.000000
Fe   12.019000    19.593600     0.000000
Fe   12.372500    20.205900     0.000000
Fe   12.726000    20.818200     0.000000
Fe   13.079500    21.430500     0.000000
Fe   13.433000    22.042800     0.000000
Fe   13.786500    22.655100     0.000000
Fe   14.140000    23.267400     0.000000
Fe   14.493500    23.879700     0.000000
Fe    1.414000     0.000000     0.000000
Fe    1.767500     0.612300     0.000000
Fe    2.121000     1.224600     0.000000
Fe    2.474500     1.836900     0.000000
Fe    2.828000     2.449200     0.000000
Fe    3.181500     3.061500     0.000000
Fe    3.535000     3.673800     0.000000
Fe    3.888500     4.286100     0.000000
Fe    4.242000     4.898400     0.000000
Fe    4.595500     5.510700     0.000000
Fe    4.949000     6.123000     0.000000
Fe    5.302500     6.735300     0.000000
Fe    5.656000     7.347600     0.000000
Fe    6.009500     7.959900     0.000000
Fe    6.363000     8.572200     0.000000
Fe    6.716500     9.184500     0.000000
Fe    7.070000     9.796800     0.000000
Fe    7.423500    10.409100     0.000000
Fe    7.777000    11.021400     0.000000
Fe    8.130500    11.633700     0.000000
Fe    8.484000    12.246000     0.000000
Fe    8.837500    12.858300     0.000000
Fe    9.191000    13.470600     0.000000
Fe    9.544500    14.082900     0.000000
Fe    9.898000    14.695200     0.000000
Fe   10.251500    15.307500     0.000000
Fe   10.605000    15.919800     0.000000
Fe   10.958500    16.532100     0.000000
Fe   11.312000    17.144400     0.000000
Fe   11.665500    17.756700     0.000000
Fe   12.019000    18.369000     0.000000
Fe   12.372500    18.981300     0.000000
Fe   12.726000    19.593600     0.000000
Fe   13.079500    20.205900     0.000000
Fe   13.433000    20.818200     0.000000
Fe   13.786500    21.430500     0.000000
Fe   14.140000    22.042800     0.000000
Fe   14.493500    22.655100     0.000000
Fe   14.847000    23.267400     0.000000
Fe   15.200500    23.879700     0.000000
Fe    2.121000     0.000000     0.000000
Fe    2.474500     0.612300     0.000000
Fe    2.828000     1.224600     0.000000
Fe    3.181500     1.836900     0.000000
Fe    3.535000     2.449200     0.000000
Fe    3.888500     3.061500     0.000000
Fe    4.242000     3.673800     0.000000
Fe    4.595500     4.286100     0.000000
Fe    4.949000     4.898400     0.000000
Fe    5.302500     5.510700     0.000000
Fe    5.656000     6.123000     0.000000
Fe    6.009500     6.735300     0.000000
Fe    6.363000     7.347600     0.000000
Fe    6.716500     7.959900     0.000000
Fe    7.070000     8.572200     0.000000
Fe    7.423500     9.184500     0.000000
Fe    7.777000     9.796800     0.000000
Fe    8.130500    10.409100     0.000000
Fe    8.484000    11.021400     0.000000
Fe    8.837500    11.633700     0.000000
Fe    9.191000    12.246000     0.000000
Fe    9.544500    12.858300     0.000000
Fe    9.898000    13.470600     0.000000
Fe   10.251500    14.082900     0.000000
Fe   10.605000    14.695200     0.000000
Fe   10.958500    15.307500     0.000000
Fe   11.312000    15.919800     0.000000
Fe   11.665500    16.532100     0.000000
Fe   12.019000    17.144400     0.000000
Fe   12.372500    17.756700     0.000000
Fe   12.726000    18.369000     0.000000
Fe   13.079500    18.981300     0.000000
Fe   13.433000    19.593600     0.000000
Fe   13.786500    20.205900     0.000000
Fe   14.140000    20.818200     0.000000
Fe   14.493500    21.430500     0.000000
Fe   14.847000    22.042800     0.000000
Fe   15.200500    22.655100     0.000000
Fe   15.554000    23.267400     0.000000
Fe   15.907500    23.879700     0.000000
Fe    2.828000     0.000000     0.000000
Fe    3.181500     0.612300     0.000000
Fe    3.535000     1.224600     0.000000
Fe    3.888500     1.836900     0.000000
Fe    4.242000     2.449200     0.000000
Fe    4.595500     3.061500     0.000000
Fe    4.949000     3.673800     0.000000
Fe    5.302500     4.286100     0.000000
Fe    5.656000     4.898400     0.000000
Fe    6.009500     5.510700     0.000000
Fe    6.363000     6.123000     0.000000
Fe    6.716500     6.735300     0.000000
Fe    7.070000     7.347600     0.000000
Fe    7.423500     7.959900     0.000000
Fe    7.777000     8.572200     0.000000
Fe    8.130500     9.184500     0.000000
Fe    8.484000     9.796800     0.000000
Fe    8.837500    10.409100     0.000000
Fe    9.191000    11.021400     0.000000
Fe    9.544500    11.633700     0.000000
Fe    9.898000    12.246000     0.000000
Fe   10.251500    12.858300     0.000000
Fe   10.605000    13.470600     0.000000
Fe   10.958500    14.082900     0.000000
Fe   11.312000    14.695200     0.000000
Fe   11.665500    15.307500     0.000000
Fe   12.019000    15.919800     0.000000
Fe   12.372500    16.532100     0.000000
Fe   12.726000    17.144400     0.000000
Fe   13.079500    17.756700     0.000000
Fe   13.433000    18.369000     0.000000
Fe   13.786500    18.981300     0.000000
Fe   14.140000    19.593600     0.000000
Fe   14.493500    20.205900     0.000000
Fe   14.847000    20.818200     0.000000
Fe   15.200500    21.430500     0.000000
Fe   15.554000    22.042800     0.000000
Fe   15.907500    22.655100     0.000000
Fe   16.261000    23.267400     0.000000
Fe   16.614500    23.879700     0.000000
Fe    3.535000     0.000000     0.000000
Fe    3.888500     0.612300     0.000000
Fe    4.242000     1.224600     0.000000
Fe    4.595500     1.836900     0.000000
Fe    4.949000     2.449200     0.000000
Fe    5.302500     3.061500     0.000000
Fe    5.656000     3.673800     0.000000
Fe    6.009500     4.286100     0.000000
Fe    6.363000     4.898400     0.000000
Fe    6.716500     5.510700     0.000000
Fe    7.070000     6.123000     0.000000
Fe    7.423500     6.735300     0.000000
Fe    7.777000     7.347600     0.000000
Fe    8.130500     7.959900     0.000000
Fe    8.484000     8.572200     0.000000
Fe    8.837500     9.184500     0.000000
Fe    9.191000     9.796800     0.000000
Fe    9.544500    10.409100     0.000000
Fe    9.898000    11.021400     0.000000
Fe   10.251500    11.633700     0.000000
Fe   10.605000    12.246000     0.000000
Fe   10.958500    12.858300     0.000000
Fe   11.312000    13.470600     0.000000
Fe   11.665500    14.082900     0.000000
Fe   12.019000    14.695200     0.000000
Fe   12.372500    15.307500     0.000000
Fe   12.726000    15.919800     0.000000
Fe   13.079500    16.532100     0.000000
Fe   13.433000    17.144400     0.000000
Fe   13.786500    17.756700     0.000000
Fe   14.140000    18.369000     0.000000
Fe   14.493500    18.981300     0.000000
Fe   14.847000    19.593600     0.000000
Fe   15.200500    20.205900     0.000000
Fe   15.554000    20.818200     0.000000
Fe   15.907500    21.430500     0.000000
Fe   16.261000    22.042800     0.000000
Fe   16.614500    22.655100     0.000000
Fe   16.968000    23.267400     0.000000
Fe   17.321500    23.879700     0.000000
Fe    4.242000     0.000000     0.000000
Fe    4.595500     0.612300     0.000000
Fe    4.949000     1.224600     0.000000
Fe    5.302500     1.836900     0.000000
Fe    5.656000     2.449200     0.000000
Fe    6.009500     3.061500     0.000000
Fe    6.363000     3.673800     0.000000
Fe    6.716500     4.286100     0.000000
Fe    7.070000     4.898400     0.000000
Fe    7.423500     5.510700     0.000000
Fe    7.777000     6.123000     0.000000
Fe    8.130500     6.735300     0.000000
Fe    8.484000     7.347600     0.000000
Fe    8.837500     7.959900     0.000000
Fe    9.191000     8.572200     0.000000
Fe    9.544500     9.184500     0.000000
Fe    9.898000     9.796800     0.000000
Fe   10.251500    10.409100     0.000000
Fe   10.605000    11.021400     0.000000
Fe   10.958500    11.633700     0.000000
Fe   11.312000    12.246000     0.000000
Fe   11.665500    12.858300     0.000000
Fe   12.019000    13.470600     0.000000
Fe   12.372500    14.082900     0.000000
Fe   12.726000    14.695200     0.000000
Fe   13.079500    15.307500     0.000000
Fe   13.433000    15.919800     0.000000
Fe   13.786500    16.532100     0.000000
Fe   14.140000    17.144400     0.000000
Fe   14.493500    17.756700     0.000000
Fe   14.847000    18.369000     0.000000
Fe   15.200500    18.981300     0.000000
Fe   15.554000    19.593600     0.000000
Fe   15.907500    20.205900     0.000000
Fe   16.261000    20.818200     0.000000
Fe   16.614500    21.430500     0.000000
Fe   16.968000    22.042800     0.000000
Fe   17.321500    22.655100     0.000000
Fe   17.675000    23.267400     0.000000
Fe   18.028500    23.879700     0.000000
Fe    4.949000     0.000000     0.000000
Fe    5.302500     0.612300     0.000000
Fe    5.656000     1.224600     0.000000
Fe    6.009500     1.836900     0.000000
Fe    6.363000     2.449200     0.000000
Fe    6.716500     3.061500     0.000000
Fe    7.070000     3.673800     0.000000
Fe    7.423500     4.286100     0.000000
Fe    7.777000     4.898400     0.000000
Fe    8.130500     5.510700     0.000000
Fe    8.484000     6.123000     0.000000
Fe    8.837500     6.735300     0.000000
Fe    9.191000     7.347600     0.000000
Fe    9.544500     7.959900     0.000000
Fe    9.898000     8.572200     0.000000
Fe   10.251500     9.184500     0.000000
Fe   10.605000     9.796800     0.000000
Fe   10.958500    10.409100     0.000000
Fe   11.312000    11.021400     0.000000
Fe   11.665500    11.633700     0.000000
Fe   12.019000    12.246000     0.000000
Fe   12.372500    12.858300     0.000000
Fe   12.726000    13.470600     0.000000
Fe   13.079500    14.082900     0.000000
Fe   13.433000    14.695200     0.000000
Fe   13.786500    15.307500     0.000000
Fe   14.140000    15.919800     0.000000
Fe   14.493500    16.532100     0.000000
Fe   14.847000    17.144400     0.000000
Fe   15.200500    17.756700     0.000000
Fe   15.554000    18.369000     0.000000
Fe   15.907500    18.981300     0.000000
Fe   16.261000    19.593600     0.000000
Fe   16.614500    20.205900     0.000000
Fe   16.968000    20.818200     0.000000
Fe   17.321500    21.430500     0.000000
Fe   17.675000    22.042800     0.000000
Fe   18.028500    22.655100     0.000000
Fe   18.382000    23.267400     0.000000
Fe   18.735500    23.879700     0.000000
Fe    5.656000     0.000000     0.000000
Fe    6.009500     0.612300     0.000000
Fe    6.363000     1.224600     0.000000
Fe    6.716500     1.836900     0.000000
Fe    7.070000     2.449200     0.000000
Fe    7.423500     3.061500     0.000000
Fe    7.777000     3.673800     0.000000
Fe    8.130500     4.286100     0.000000
Fe    8.484000     4.898400     0.000000
Fe    8.837500     5.510700     0.000000
Fe    9.191000     6.123000     0.000000
Fe    9.544500     6.735300     0.000000
Fe    9.898000     7.347600     0.000000
Fe   10.251500     7.959900     0.000000
Fe   10.605000     8.572200     0.000000
Fe   10.958500     9.184500     0.000000
Fe   11.312000     9.796800     0.000000
Fe   11.665500    10.409100     0.000000
Fe   12.019000    11.021400     0.000000
Fe   12.372500    11.633700     0.000000
Fe   12.726000    12.246000     0.000000
Fe   13.079500    12.858300     0.000000
Fe   13.433000    13.470600     0.000000
Fe   13.786500    14.082900     0.000000
Fe   14.140000    14.695200     0.000000
Fe   14.493500    15.307500     0.000000
Fe   14.847000    15.919800     0.000000
Fe   15.200500    16.532100     0.000000
Fe   15.554000    17.144400     0.000000
Fe   15.907500    17.756700     0.000000
Fe   16.261000    18.369000     0.000000
Fe   16.614500    18.981300     0.000000
Fe   16.968000    19.593600     0.000000
Fe   17.321500    20.205900     0.000000
Fe   17.675000    20.818200     0.000000
Fe   18.028500    21.430500     0.000000
Fe   18.382000    22.042800     0.000000
Fe   18.735500    22.655100     0.000000
Fe   19.089000    23.267400     0.000000
Fe   19.442500    23.879700     0.000000
Fe    6.363000     0.000000     0.000000
Fe    6.716500     0.612300     0.000000
Fe    7.070000     1.224600     0.000000
Fe    7.423500     1.836900     0.000000
Fe    7.777000     2.449200     0.000000
Fe    8.130500     3.061500     0.000000
Fe    8.484000     3.673800     0.000000
Fe    8.837500     4.286100     0.000000
Fe    9.191000     4.898400     0.000000
Fe    9.544500     5.510700     0.000000
Fe    9.898000     6.123000     0.000000
Fe   10.251500     6.735300     0.000000
Fe   10.605000     7.347600     0.000000
Fe   10.958500     7.959900     0.000000
Fe   11.312000     8.572200     0.000000
Fe   11.665500     9.184500     0.000000
Fe   12.019000     9.796800     0.000000
Fe   12.372500    10.409100     0.000000
Fe   12.726000    11.021400     0.000000
Fe   13.079500    11.633700     0.000000
Fe   13.433000    12.246000     0.000000
Fe   13.786500    12.858300     0.000000
Fe   14.140000    13.470600     0.000000
Fe   14.493500    14.082900     0.000000
Fe   14.847000    14.695200     0.000000
Fe   15.200500    15.307500     0.000000
Fe   15.554000    15.919800     0.000000
Fe   15.907500    16.532100     0.000000
Fe   16.261000    17.144400     0.000000
Fe   16.614500    17.756700     0.000000
Fe   16.968000    18.369000     0.000000
Fe   17.321500    18.981300     0.000000
Fe   17.675000    19.593600     0.000000
Fe   18.028500    20.205900     0.000000
Fe   18.382000    20.818200     0.000000
Fe   18.735500    21.430500     0.000000
Fe   19.089000    22.042800     0.000000
Fe   19.442500    22.655100     0.000000
Fe   19.796000    23.267400     0.000000
Fe   20.149500    23.879700     0.000000
Fe    7.070000     0.000000     0.000000
Fe    7.423500     0.612300     0.000000
Fe    7.777000     1.224600     0.000000
Fe    8.130500     1.836900     0.000000
Fe    8.484000     2.449200     0.000000
Fe    8.837500     3.061500     0.000000
Fe    9.191000     3.673800     0.000000
Fe    9.544500     4.286100     0.000000
Fe    9.898000     4.898400     0.000000
Fe   10.251500     5.510700     0.000000
Fe   10.605000     6.123000     0.000000
Fe   10.958500     6.735300     0.000000
Fe   11.312000     7.347600     0.000000
Fe   11.665500     7.959900     0.000000
Fe   12.019000     8.572200     0.000000
Fe   12.372500     9.184500     0.000000
Fe   12.726000     9.796800     0.000000
Fe   13.079500    10.409100     0.000000
Fe   13.433000    11.021400     0.000000
Fe   13.786500    11.633700     0.000000
Fe   14.140000    12.246000     0.000000
Fe   14.493500    12.858300     0.000000
Fe   14.847000    13.470600     0.000000
Fe   15.200500    14.082900     0.000000
Fe   15.554000    14.695200     0.000000
Fe   15.907500    15.307500     0.000000
Fe   16.261000    15.919800     0.000000
Fe   16.614500    16.532100     0.000000
Fe   16.968000    17.144400     0.000000
Fe   17.321500    17.756700     0.000000
Fe   17.675000    18.369000     0.000000
Fe   18.028500    18.981300     0.000000
Fe   18.382000    19.593600     0.000000
Fe   18.735500    20.205900     0.000000
Fe   19.089000    20.818200     0.000000
Fe   19.442500    21.430500     0.000000
Fe   19.796000    22.042800     0.000000
Fe   20.149500    22.655100     0.000000
Fe   20.503000    23.267400     0.000000
Fe   20.856500    23.879700     0.000000
Fe    7.777000     0.000000     0.000000
Fe    8.130500     0.612300     0.000000
Fe    8.484000     1.224600     0.000000
Fe    8.837500     1.836900     0.000000
Fe    9.191000     2.449200     0.000000
Fe    9.544500     3.061500     0.000000
Fe    9.898000     3.673800     0.000000
Fe   10.251500     4.286100     0.000000
Fe   10.605000     4.898400     0.000000
Fe   10.958500     5.510700     0.000000
Fe   11.312000     6.123000     0.000000
Fe   11.665500     6.735300     0.000000
Fe   12.019000     7.347600     0.000000
Fe   12.372500     7.959900     0.000000
Fe   12.726000     8.572200     0.000000
Fe   13.079500     9.184500     0.000000
Fe   13.433000     9.796800     0.000000
Fe   13.786500    10.409100     0.000000
Fe   14.140000    11.021400     0.000000
Fe   14.493500    11.633700     0.000000
Fe   14.847000    12.246000     0.000000
Fe   15.200500    12.858300     0.000000
Fe   15.554000    13.470600     0.000000
Fe   15.907500    14.082900     0.000000
Fe   16.261000    14.695200     0.000000
Fe   16.614500    15.307500     0.000000
Fe   16.968000    15.919800     0.000000
Fe   17.321500    16.532100     0.000000
Fe   17.675000    17.144400     0.000000
Fe   18.028500    17.756700     0.000000
Fe   18.382000    18.369000     0.000000
Fe   18.735500    18.981300     0.000000
Fe   19.089000    19.593600     0.000000
Fe   19.442500    20.205900     0.000000
Fe   19.796000    20.818200     0.000000
Fe   20.149500    21.430500     0.000000
Fe   20.503000    22.042800     0.000000
Fe   20.856500    22.655100     0.000000
Fe   21.210000    23.267400     0.000000
Fe   21.563500    23.879700     0.000000
Fe    8.484000     0.000000     0.000000
Fe    8.837500     0.612300     0.000000
Fe    9.191000     1.224600     0.000000
Fe    9.544500     1.836900     0.000000
Fe    9.898000     2.449200     0.000000
Fe   10.251500     3.061500     0.000000
Fe   10.605000     3.673800     0.000000
Fe   10.958500     4.286100     0.000000
Fe   11.312000     4.898400     0.000000
Fe   11.665500     5.510700     0.000000
Fe   12.019000     6.123000     0.000000
Fe   12.372500     6.735300     0.000000
Fe   12.726000     7.347600     0.000000
Fe   13.079500     7.959900     0.000000
Fe   13.433000     8.572200     0.000000
Fe   13.786500     9.184500     0.000000
Fe   14.140000     9.796800     0.000000
Fe   14.493500    10.409100     0.000000
Fe   14.847000    11.021400     0.000000
Fe   15.200500    11.633700     0.000000
Fe   15.554000    12.246000     0.000000
Fe   15.907500    12.858300     0.000000
Fe   16.261000    13.470600     0.000000
Fe   16.614500    14.082900     0.000000
Fe   16.968000    14.695200     0.000000
Fe   17.321500    15.307500     0.000000
Fe   17.675000    15.919800     0.000000
Fe   18.028500    16.532100     0.000000
Fe   18.382000    17.144400     0.000000
Fe   18.735500    17.756700     0.000000
Fe   19.089000    18.369000     0.000000
Fe   19.442500    18.981300     0.000000
Fe   19.796000    19.593600     0.000000
Fe   20.149500    20.205900     0.000000
Fe   20.503000    20.818200     0.000000
Fe   20.856500    21.430500     0.000000
Fe   21.210000    22.042800     0.000000
Fe   21.563500    22.655100     0.000000
Fe   21.917000    23.267400     0.000000
Fe   22.270500    23.879700     0.000000
Fe    9.191000     0.000000     0.000000
Fe    9.544500     0.612300     0.000000
Fe    9.898000     1.224600     0.000000
Fe   10.251500     1.836900     0.000000
Fe   10.605000     2.449200     0.000000
Fe   10.958500     3.061500     0.000000
Fe   11.312000     3.673800     0.000000
Fe   11.665500     4.286100     0.000000
Fe   12.019000     4.898400     0.000000
Fe   12.372500     5.510700     0.000000
Fe   12.726000     6.123000     0.000000
Fe   13.079500     6.735300     0.000000
Fe   13.433000     7.347600     0.000000
Fe   13.786500     7.959900     0.000000
Fe   14.140000     8.572200     0.000000
Fe   14.493500     9.184500     0.000000
Fe   14.847000     9.796800     0.000000
Fe   15.200500    10.409100     0.000000
Fe   15.554000    11.021400     0.000000
Fe   15.907500    11.633700     0.000000
Fe   16.261000    12.246000     0.000000
Fe   16.614500    12.858300     0.000000
Fe   16.968000    13.470600     0.000000
Fe   17.321500    14.082900     0.000000
Fe   17.675000    14.695200     0.000000
Fe   18.028500    15.307500     0.000000
Fe   18.382000    15.919800     0.000000
Fe   18.735500    16.532100     0.000000
Fe   19.089000    17.144400     0.000000
Fe   19.442500    17.756700     0.000000
Nb    19.796000    18.369000     0.000000
Nb    20.149500    18.981300     0.000000
Nb    20.503000    19.593600     0.000000
Fe   20.856500    20.205900     0.000000
Fe   21.210000    20.818200     0.000000
Fe   21.563500    21.430500     0.000000
Fe   21.917000    22.042800     0.000000
Fe   22.270500    22.655100     0.000000
Fe   22.624000    23.267400     0.000000
Fe   22.977500    23.879700     0.000000
Fe    9.898000     0.000000     0.000000
Fe   10.251500     0.612300     0.000000
Fe   10.605000     1.224600     0.000000
Fe   10.958500     1.836900     0.000000
Fe   11.312000     2.449200     0.000000
Fe   11.665500     3.061500     0.000000
Fe   12.019000     3.673800     0.000000
Fe   12.372500     4.286100     0.000000
Fe   12.726000     4.898400     0.000000
Fe   13.079500     5.510700     0.000000
Fe   13.433000     6.123000     0.000000
Fe   13.786500     6.735300     0.000000
Fe   14.140000     7.347600     0.000000
Fe   14.493500     7.959900     0.000000
Fe   14.847000     8.572200     0.000000
Fe   15.200500     9.184500     0.000000
Fe   15.554000     9.796800     0.000000
Fe   15.907500    10.409100     0.000000
Fe   16.261000    11.021400     0.000000
Fe   16.614500    11.633700     0.000000
Fe   16.968000    12.246000     0.000000
Fe   17.321500    12.858300     0.000000
Fe   17.675000    13.470600     0.000000
Fe   18.028500    14.082900     0.000000
Fe   18.382000    14.695200     0.000000
Fe   18.735500    15.307500     0.000000
Fe   19.089000    15.919800     0.000000
Fe   19.442500    16.532100     0.000000
Fe   19.796000    17.144400     0.000000
Nb    20.149500    17.756700     0.000000
Nb    20.503000    18.369000     0.000000
Nb    20.856500    18.981300     0.000000
Nb    21.210000    19.593600     0.000000
Fe   21.563500    20.205900     0.000000
Fe   21.917000    20.818200     0.000000
Fe   22.270500    21.430500     0.000000
Fe   22.624000    22.042800     0.000000
Fe   22.977500    22.655100     0.000000
Fe   23.331000    23.267400     0.000000
Fe   23.684500    23.879700     0.000000
Fe   10.605000     0.000000     0.000000
Fe   10.958500     0.612300     0.000000
Fe   11.312000     1.224600     0.000000
Fe   11.665500     1.836900     0.000000
Fe   12.019000     2.449200     0.000000
Fe   12.372500     3.061500     0.000000
Fe   12.726000     3.673800     0.000000
Fe   13.079500     4.286100     0.000000
Fe   13.433000     4.898400     0.000000
Fe   13.786500     5.510700     0.000000
Fe   14.140000     6.123000     0.000000
Fe   14.493500     6.735300     0.000000
Fe   14.847000     7.347600     0.000000
Fe   15.200500     7.959900     0.000000
Fe   15.554000     8.572200     0.000000
Fe   15.907500     9.184500     0.000000
Fe   16.261000     9.796800     0.000000
Fe   16.614500    10.409100     0.000000
Fe   16.968000    11.021400     0.000000
Fe   17.321500    11.633700     0.000000
Fe   17.675000    12.246000     0.000000
Fe   18.028500    12.858300     0.000000
Fe   18.382000    13.470600     0.000000
Fe   18.735500    14.082900     0.000000
Fe   19.089000    14.695200     0.000000
Fe   19.442500    15.307500     0.000000
Fe   19.796000    15.919800     0.000000
Fe   20.149500    16.532100     0.000000
Nb    20.503000    17.144400     0.000000
Nb    20.856500    17.756700     0.000000
Nb    21.210000    18.369000     0.000000
Nb    21.563500    18.981300     0.000000
Nb    21.917000    19.593600     0.000000
Fe   22.270500    20.205900     0.000000
Fe   22.624000    20.818200     0.000000
Fe   22.977500    21.430500     0.000000
Fe   23.331000    22.042800     0.000000
Fe   23.684500    22.655100     0.000000
Fe   24.038000    23.267400     0.000000
Fe   24.391500    23.879700     0.000000
Fe   11.312000     0.000000     0.000000
Fe   11.665500     0.612300     0.000000
Fe   12.019000     1.224600     0.000000
Fe   12.372500     1.836900     0.000000
Fe   12.726000     2.449200     0.000000
Fe   13.079500     3.061500     0.000000
Fe   13.433000     3.673800     0.000000
Fe   13.786500     4.286100     0.000000
Fe   14.140000     4.898400     0.000000
Fe   14.493500     5.510700     0.000000
Fe   14.847000     6.123000     0.000000
Fe   15.200500     6.735300     0.000000
Fe   15.554000     7.347600     0.000000
Fe   15.907500     7.959900     0.000000
Fe   16.261000     8.572200     0.000000
Fe   16.614500     9.184500     0.000000
Fe   16.968000     9.796800     0.000000
Fe   17.321500    10.409100     0.000000
Fe   17.675000    11.021400     0.000000
Fe   18.028500    11.633700     0.000000
Fe   18.382000    12.246000     0.000000
Fe   18.735500    12.858300     0.000000
Fe   19.089000    13.470600     0.000000
Fe   19.442500    14.082900     0.000000
Fe   19.796000    14.695200     0.000000
Fe   20.149500    15.307500     0.000000
Fe   20.503000    15.919800     0.000000
Fe   20.856500    16.532100     0.000000
Nb    21.210000    17.144400     0.000000
Nb    21.563500    17.756700     0.000000
Nb    21.917000    18.369000     0.000000
Nb    22.270500    18.981300     0.000000
Fe   22.624000    19.593600     0.000000
Fe   22.977500    20.205900     0.000000
Fe   23.331000    20.818200     0.000000
Fe   23.684500    21.430500     0.000000
Fe   24.038000    22.042800     0.000000
Fe   24.391500    22.655100     0.000000
Fe   24.745000    23.267400     0.000000
Fe   25.098500    23.879700     0.000000
Fe   12.019000     0.000000     0.000000
Fe   12.372500     0.612300     0.000000
Fe   12.726000     1.224600     0.000000
Fe   13.079500     1.836900     0.000000
Fe   13.433000     2.449200     0.000000
Fe   13.786500     3.061500     0.000000
Fe   14.140000     3.673800     0.000000
Fe   14.493500     4.286100     0.000000
Fe   14.847000     4.898400     0.000000
Fe   15.200500     5.510700     0.000000
Fe   15.554000     6.123000     0.000000
Fe   15.907500     6.735300     0.000000
Fe   16.261000     7.347600     0.000000
Fe   16.614500     7.959900     0.000000
Fe   16.968000     8.572200     0.000000
Fe   17.321500     9.184500     0.000000
Fe   17.675000     9.796800     0.000000
Fe   18.028500    10.409100     0.000000
Fe   18.382000    11.021400     0.000000
Fe   18.735500    11.633700     0.000000
Fe   19.089000    12.246000     0.000000
Fe   19.442500    12.858300     0.000000
Fe   19.796000    13.470600     0.000000
Fe   20.149500    14.082900     0.000000
Fe   20.503000    14.695200     0.000000
Fe   20.856500    15.307500     0.000000
Fe   21.210000    15.919800     0.000000
Fe   21.563500    16.532100     0.000000
Nb    21.917000    17.144400     0.000000
Nb    22.270500    17.756700     0.000000
Nb    22.624000    18.369000     0.000000
Fe   22.977500    18.981300     0.000000
Fe   23.331000    19.593600     0.000000
Fe   23.684500    20.205900     0.000000
Fe   24.038000    20.818200     0.000000
Fe   24.391500    21.430500     0.000000
Fe   24.745000    22.042800     0.000000
Fe   25.098500    22.655100     0.000000
Fe   25.452000    23.267400     0.000000
Fe   25.805500    23.879700     0.000000
Fe   12.726000     0.000000     0.000000
Fe   13.079500     0.612300     0.000000
Fe   13.433000     1.224600     0.000000
Fe   13.786500     1.836900     0.000000
Fe   14.140000     2.449200     0.000000
Fe   14.493500     3.061500     0.000000
Fe   14.847000     3.673800     0.000000
Fe   15.200500     4.286100     0.000000
Fe   15.554000     4.898400     0.000000
Fe   15.907500     5.510700     0.000000
Fe   16.261000     6.123000     0.000000
Fe   16.614500     6.735300     0.000000
Fe   16.968000     7.347600     0.000000
Fe   17.321500     7.959900     0.000000
Fe   17.675000     8.572200     0.000000
Fe   18.028500     9.184500     0.000000
Fe   18.382000     9.796800     0.000000
Fe   18.735500    10.409100     0.000000
Fe   19.089000    11.021400     0.000000
Fe   19.442500    11.633700     0.000000
Fe   19.796000    12.246000     0.000000
Fe   20.149500    12.858300     0.000000
Fe   20.503000    13.470600     0.000000
Fe   20.856500    14.082900     0.000000
Fe   21.210000    14.695200     0.000000
Fe   21.563500    15.307500     0.000000
Fe   21.917000    15.919800     0.000000
Fe   22.270500    16.532100     0.000000
Fe   22.624000    17.144400     0.000000
Fe   22.977500    17.756700     0.000000
Fe   23.331000    18.369000     0.000000
Fe   23.684500    18.981300     0.000000
Fe   24.038000    19.593600     0.000000
Fe   24.391500    20.205900     0.000000
Fe   24.745000    20.818200     0.000000
Fe   25.098500    21.430500     0.000000
Fe   25.452000    22.042800     0.000000
Fe   25.805500    22.655100     0.000000
Fe   26.159000    23.267400     0.000000
Fe   26.512500    23.879700     0.000000
Fe   13.433000     0.000000     0.000000
Fe   13.786500     0.612300     0.000000
Fe   14.140000     1.224600     0.000000
Fe   14.493500     1.836900     0.000000
Fe   14.847000     2.449200     0.000000
Fe   15.200500     3.061500     0.000000
Fe   15.554000     3.673800     0.000000
Fe   15.907500     4.286100     0.000000
Fe   16.261000     4.898400     0.000000
Fe   16.614500     5.510700     0.000000
Fe   16.968000     6.123000     0.000000
Fe   17.321500     6.735300     0.000000
Fe   17.675000     7.347600     0.000000
Fe   18.028500     7.959900     0.000000
Fe   18.382000     8.572200     0.000000
Fe   18.735500     9.184500     0.000000
Fe   19.089000     9.796800     0.000000
Fe   19.442500    10.409100     0.000000
Fe   19.796000    11.021400     0.000000
Fe   20.149500    11.633700     0.000000
Fe   20.503000    12.246000     0.000000
Fe   20.856500    12.858300     0.000000
Fe   21.210000    13.470600     0.000000
Fe   21.563500    14.082900     0.000000
Fe   21.917000    14.695200     0.000000
Fe   22.270500    15.307500     0.000000
Fe   22.624000    15.919800     0.000000
Fe   22.977500    16.532100     0.000000
Fe   23.331000    17.144400     0.000000
Fe   23.684500    17.756700     0.000000
Fe   24.038000    18.369000     0.000000
Fe   24.391500    18.981300     0.000000
Fe   24.745000    19.593600     0.000000
Fe   25.098500    20.205900     0.000000
Fe   25.452000    20.818200     0.000000
Fe   25.805500    21.430500     0.000000
Fe   26.159000    22.042800     0.000000
Fe   26.512500    22.655100     0.000000
Fe   26.866000    23.267400     0.000000
Fe   27.219500    23.879700     0.000000
